target
  PyMOL3.1          3D                             0

 16 17  0  0  0  0  0  0  0  0999 V2000
    7.5974   -0.3658   21.3429 N   0  0  0  0  0  0  0  0  0  0  0  0
    8.8786    0.1379   21.7206 C   0  0  0  0  0  0  0  0  0  0  0  0
    9.4459    0.8768   20.9833 O   0  0  0  0  0  0  0  0  0  0  0  0
    9.4602   -0.3160   23.0544 C   0  0  0  0  0  0  0  0  0  0  0  0
    7.1817    0.3027   17.8106 N   0  0  0  0  0  0  0  0  0  0  0  0
   10.9852   -0.3109   23.0277 C   0  0  0  0  0  0  0  0  0  0  0  0
   11.4752   -0.5703   24.4447 C   0  0  0  0  0  0  0  0  0  0  0  0
   12.9910   -0.5452   24.4229 C   0  0  0  0  0  0  0  0  0  0  0  0
   13.5017   -1.7104   23.5915 C   0  0  0  0  0  0  0  0  0  0  0  0
   13.0143   -1.5530   22.1624 C   0  0  0  0  0  0  0  0  0  0  0  0
   11.5055   -1.3759   22.0656 C   0  0  0  0  0  0  0  0  0  0  0  0
    7.0276    0.0710   20.1094 C   0  0  0  0  0  0  0  0  0  0  0  0
    5.7901    0.7018   20.1615 C   0  0  0  0  0  0  0  0  0  0  0  0
    5.2671    1.1188   18.9380 C   0  0  0  0  0  0  0  0  0  0  0  0
    6.0001    0.8988   17.7829 C   0  0  0  0  0  0  0  0  0  0  0  0
    7.7200   -0.1131   18.9274 C   0  0  0  0  0  0  0  0  0  0  0  0
  1  2  1  0  0  0  0
  2  4  1  0  0  0  0
  2  3  2  0  0  0  0
  4  6  1  0  0  0  0
  5 15  4  0  0  0  0
  5 16  4  0  0  0  0
  6  7  1  0  0  0  0
  7  8  1  0  0  0  0
  8  9  1  0  0  0  0
  9 10  1  0  0  0  0
 10 11  1  0  0  0  0
  6 11  1  0  0  0  0
  1 12  1  0  0  0  0
 12 13  4  0  0  0  0
 12 16  4  0  0  0  0
 13 14  4  0  0  0  0
 14 15  4  0  0  0  0
M  END
$$$$
