target
  PyMOL3.1          3D                             0

 11 11  0  0  0  0  0  0  0  0999 V2000
   10.2243   -0.7737   22.5041 C   0  0  0  0  0  0  0  0  0  0  0  0
    9.3215   -0.1453   21.4446 C   0  0  0  0  0  0  0  0  0  0  0  0
    9.6453    0.8705   20.9328 O   0  0  0  0  0  0  0  0  0  0  0  0
    8.0709   -0.7850   21.0733 N   0  0  0  0  0  0  0  0  0  0  0  0
    7.2114   -0.1921   20.0612 C   0  0  0  0  0  0  0  0  0  0  0  0
    7.5749   -0.2504   18.7220 C   0  0  0  0  0  0  0  0  0  0  0  0
    6.8170    0.2747   17.7783 N   0  0  0  0  0  0  0  0  0  0  0  0
    5.6886    0.8779   18.0790 C   0  0  0  0  0  0  0  0  0  0  0  0
    5.2440    0.9926   19.3894 C   0  0  0  0  0  0  0  0  0  0  0  0
    6.0206    0.4409   20.4087 C   0  0  0  0  0  0  0  0  0  0  0  0
    5.5885    0.5375   21.8698 C   0  0  0  0  0  0  0  0  0  0  0  0
  1  2  1  0  0  0  0
  2  3  2  0  0  0  0
  2  4  1  0  0  0  0
  4  5  1  0  0  0  0
  5  6  4  0  0  0  0
  6  7  4  0  0  0  0
  7  8  4  0  0  0  0
  8  9  4  0  0  0  0
  5 10  4  0  0  0  0
  9 10  4  0  0  0  0
 10 11  1  0  0  0  0
M  END
$$$$
